# created with PyMOL 3.1.6.1
@<TRIPOS>MOLECULE
1a0t_ligand
45 46 1                 
SMALL
USER_CHARGES
@<TRIPOS>ATOM
1	 C6'	-47.510	-12.145	-11.779	C.3	1	SUC1	0.073	
2	 O6'	-47.902	-12.831	-10.621	O.3	1	SUC1	-0.392	
3	 C5'	-48.064	-12.774	-13.026	C.3	1	SUC1	0.113	
4	 C4'	-48.670	-14.175	-12.903	C.3	1	SUC1	0.115	
5	 O4'	-50.005	-14.182	-12.388	O.3	1	SUC1	-0.386	
6	 C3'	-48.656	-14.581	-14.361	C.3	1	SUC1	0.140	
7	 O3'	-48.865	-15.951	-14.606	O.3	1	SUC1	-0.384	
8	 C2'	-47.290	-14.025	-14.850	C.3	1	SUC1	0.225	
9	 O2'	-47.021	-12.934	-14.002	O.3	1	SUC1	-0.336	
10	 C1'	-47.271	-13.519	-16.288	C.3	1	SUC1	0.101	
11	 O1'	-48.490	-12.818	-16.536	O.3	1	SUC1	-0.390	
12	  C1	-44.952	-14.645	-14.258	C.3	1	SUC1	0.191	
13	  O1	-46.273	-15.061	-14.648	O.3	1	SUC1	-0.312	
14	  C2	-43.974	-15.813	-14.436	C.3	1	SUC1	0.134	
15	  O2	-43.985	-16.233	-15.801	O.3	1	SUC1	-0.384	
16	  C3	-44.325	-16.949	-13.476	C.3	1	SUC1	0.114	
17	  O3	-43.375	-17.987	-13.642	O.3	1	SUC1	-0.386	
18	  C4	-44.286	-16.442	-12.085	C.3	1	SUC1	0.112	
19	  O4	-44.613	-17.538	-11.187	O.3	1	SUC1	-0.387	
20	  C5	-45.277	-15.304	-11.921	C.3	1	SUC1	0.113	
21	  O5	-44.918	-14.244	-12.860	O.3	1	SUC1	-0.340	
22	  C6	-45.245	-14.758	-10.529	C.3	1	SUC1	0.073	
23	  O6	-46.115	-15.519	-9.679	O.3	1	SUC1	-0.392	
24	  H1	-44.640	-13.799	-14.889	 H	1	SUC1	0.094	
25	  H2	-42.960	-15.463	-14.192	 H	1	SUC1	0.067	
26	  H3	-45.332	-17.330	-13.700	 H	1	SUC1	0.065	
27	  H4	-43.275	-16.073	-11.857	 H	1	SUC1	0.065	
28	  H5	-46.291	-15.669	-12.143	 H	1	SUC1	0.065	
29	  H6	-45.576	-13.709	-10.542	 H	1	SUC1	0.058	
30	  H7	-44.217	-14.813	-10.140	 H	1	SUC1	0.058	
31	  H8	-44.851	-16.552	-16.026	 H	1	SUC1	0.210	
32	  H9	-43.408	-18.305	-14.537	 H	1	SUC1	0.210	
33	 H10	-44.583	-17.230	-10.289	 H	1	SUC1	0.210	
34	 H11	-45.829	-16.425	-9.665	 H	1	SUC1	0.209	
35	 H12	-47.185	-14.370	-16.980	 H	1	SUC1	0.061	
36	 H13	-46.417	-12.841	-16.432	 H	1	SUC1	0.061	
37	 H14	-49.463	-14.047	-14.884	 H	1	SUC1	0.068	
38	 H15	-48.040	-14.832	-12.285	 H	1	SUC1	0.065	
39	 H16	-48.838	-12.096	-13.415	 H	1	SUC1	0.065	
40	 H17	-47.870	-11.108	-11.715	 H	1	SUC1	0.058	
41	 H18	-46.412	-12.149	-11.838	 H	1	SUC1	0.058	
42	 H19	-48.493	-12.496	-17.430	 H	1	SUC1	0.210	
43	 H20	-49.713	-16.207	-14.262	 H	1	SUC1	0.210	
44	 H21	-50.319	-15.077	-12.338	 H	1	SUC1	0.210	
45	 H22	-47.590	-13.727	-10.664	 H	1	SUC1	0.209	
@<TRIPOS>BOND
1 1 2 1
2 1 40 1
3 1 41 1
4 2 45 1
5 1 3 1
6 3 9 1
7 3 39 1
8 3 4 1
9 4 5 1
10 4 38 1
11 5 44 1
12 4 6 1
13 6 7 1
14 6 37 1
15 7 43 1
16 6 8 1
17 8 9 1
18 8 10 1
19 10 11 1
20 10 35 1
21 10 36 1
22 11 42 1
23 12 13 1
24 12 14 1
25 12 21 1
26 12 24 1
27 8 13 1
28 14 15 1
29 14 16 1
30 14 25 1
31 15 31 1
32 16 17 1
33 16 18 1
34 16 26 1
35 17 32 1
36 18 19 1
37 18 20 1
38 18 27 1
39 19 33 1
40 20 21 1
41 20 22 1
42 20 28 1
43 22 23 1
44 22 29 1
45 22 30 1
46 23 34 1
@<TRIPOS>SUBSTRUCTURE
1	SUC1	1	GROUP	1 ****	SUC
