# created with PyMOL 3.1.6.1
@<TRIPOS>MOLECULE
1a2c_ligand
92 94 4                 
SMALL
USER_CHARGES
@<TRIPOS>ATOM
1	 OH3	13.094	-17.697	23.835	O.3	1	34H34H	-0.370	
2	 OH4	15.406	-20.917	28.112	O.3	1	34H34H	-0.338	
3	  O4	16.115	-18.127	21.955	O.2	1	34H34H	-0.394	
4	 C22	15.236	-17.781	22.754	C.2	1	34H34H	0.209	
5	 C23	13.818	-18.307	22.736	C.3	1	34H34H	0.152	
6	 C24	13.791	-19.843	22.873	C.3	1	34H34H	0.019	
7	 C25	14.269	-20.383	24.194	C.2	1	34H34H	-0.049	
8	 C26	13.354	-20.706	25.121	C.2	1	34H34H	-0.068	
9	 C27	13.742	-20.812	26.421	C.2	1	34H34H	-0.040	
10	 C28	15.068	-20.723	26.755	C.2	1	34H34H	0.080	
11	 C29	15.995	-20.508	25.818	C.2	1	34H34H	-0.040	
12	 C30	15.602	-20.359	24.510	C.2	1	34H34H	-0.068	
13	  H1	13.094	-16.753	23.728	 H	1	34H34H	0.213	
14	  H2	16.346	-20.832	28.218	 H	1	34H34H	0.246	
15	  H3	13.341	-18.028	21.785	 H	1	34H34H	0.086	
16	  H4	14.429	-20.265	22.083	 H	1	34H34H	0.045	
17	  H5	12.754	-20.178	22.725	 H	1	34H34H	0.045	
18	  H6	12.322	-20.880	24.839	 H	1	34H34H	0.053	
19	  H7	12.999	-20.967	27.195	 H	1	34H34H	0.052	
20	  H8	17.044	-20.452	26.086	 H	1	34H34H	0.052	
21	  H9	16.344	-20.223	23.731	 H	1	34H34H	0.053	
22	   N	15.422	-16.873	23.701	N.pl3	2	LEU34H	-0.263	
23	  CA	16.566	-16.038	24.045	C.3	2	LEU34H	0.131	
24	   C	16.445	-14.947	23.015	C.2	2	LEU34H	0.207	
25	   O	15.451	-14.204	23.115	O.2	2	LEU34H	-0.394	
26	  CB	17.767	-16.950	24.218	C.3	2	LEU34H	-0.010	
27	  CG	17.658	-17.686	25.547	C.3	2	LEU34H	-0.043	
28	 CD1	18.588	-17.049	26.554	C.3	2	LEU34H	-0.062	
29	 CD2	16.243	-17.585	26.122	C.3	2	LEU34H	-0.062	
30	 H10	14.627	-16.734	24.292	 H	2	LEU34H	0.188	
31	 H11	16.413	-15.564	25.026	 H	2	LEU34H	0.080	
32	 H12	18.688	-16.349	24.206	 H	2	LEU34H	0.032	
33	 H13	17.795	-17.680	23.396	 H	2	LEU34H	0.032	
34	 H14	17.926	-18.743	25.400	 H	2	LEU34H	0.030	
35	 H15	18.509	-17.581	27.514	 H	2	LEU34H	0.023	
36	 H16	18.309	-15.994	26.695	 H	2	LEU34H	0.023	
37	 H17	19.623	-17.108	26.186	 H	2	LEU34H	0.023	
38	 H18	15.528	-18.038	25.419	 H	2	LEU34H	0.023	
39	 H19	15.984	-16.527	26.276	 H	2	LEU34H	0.023	
40	 H20	16.199	-18.117	27.084	 H	2	LEU34H	0.023	
41	 OH1	15.761	-11.052	17.937	O.3	3	OAR34H	-0.393	
42	  C1	14.254	-11.607	19.907	C.3	3	OAR34H	0.065	
43	  N1	15.461	-11.891	20.571	N.pl3	3	OAR34H	-0.280	
44	  C2	13.209	-10.809	20.739	C.3	3	OAR34H	-0.025	
45	  N2	11.498	-12.160	23.680	N.pl3	3	OAR34H	-0.272	
46	  C3	13.174	-11.783	21.908	C.3	3	OAR34H	-0.018	
47	  N3	10.157	-12.834	25.468	N.2	3	OAR34H	-0.285	
48	  C4	12.218	-11.100	22.929	C.3	3	OAR34H	0.063	
49	  N4	10.367	-10.548	25.008	N.2	3	OAR34H	-0.285	
50	  C5	10.674	-11.833	24.720	C.cat	3	OAR34H	0.288	
51	  C6	14.551	-10.698	18.713	C.3	3	OAR34H	0.067	
52	 H34	16.522	-11.012	18.504	 H	3	OAR34H	0.209	
53	 H35	15.919	-11.166	21.085	 H	3	OAR34H	0.185	
54	 H36	11.620	-13.148	23.415	 H	3	OAR34H	0.264	
55	 H37	9.533	-12.617	26.258	 H	3	OAR34H	0.262	
56	 H38	10.387	-13.813	25.248	 H	3	OAR34H	0.262	
57	 H39	10.760	-9.785	24.439	 H	3	OAR34H	0.262	
58	 H40	9.740	-10.333	25.796	 H	3	OAR34H	0.262	
59	 H41	13.808	-12.556	19.573	 H	3	OAR34H	0.058	
60	 H42	12.238	-10.718	20.230	 H	3	OAR34H	0.029	
61	 H43	13.567	-9.809	21.027	 H	3	OAR34H	0.029	
62	 H44	14.178	-11.915	22.338	 H	3	OAR34H	0.030	
63	 H45	12.778	-12.760	21.593	 H	3	OAR34H	0.030	
64	 H46	11.494	-10.467	22.394	 H	3	OAR34H	0.069	
65	 H47	12.801	-10.481	23.627	 H	3	OAR34H	0.069	
66	 H48	13.687	-10.736	18.033	 H	3	OAR34H	0.058	
67	 H49	14.676	-9.672	19.089	 H	3	OAR34H	0.058	
68	 OH2	20.409	-17.461	20.107	O.3	4	PRJ34H	-0.392	
69	  O2	15.522	-13.947	19.768	O.2	4	PRJ34H	-0.394	
70	  N5	17.262	-14.761	21.976	N.pl3	4	PRJ34H	-0.246	
71	  C7	16.007	-13.108	20.529	C.2	4	PRJ34H	0.202	
72	  C8	17.151	-13.511	21.311	C.3	4	PRJ34H	0.134	
73	  C9	18.536	-13.275	20.659	C.3	4	PRJ34H	-0.007	
74	 C10	19.539	-14.175	21.363	C.3	4	PRJ34H	-0.013	
75	 C11	20.841	-14.395	20.604	C.3	4	PRJ34H	-0.046	
76	 C12	20.607	-15.131	19.215	C.3	4	PRJ34H	-0.026	
77	 C13	19.730	-16.368	19.498	C.3	4	PRJ34H	0.057	
78	 C14	18.328	-16.047	20.146	C.3	4	PRJ34H	-0.003	
79	 C15	18.518	-15.334	21.587	C.3	4	PRJ34H	0.053	
80	 H21	19.798	-18.175	20.244	 H	4	PRJ34H	0.210	
81	 H22	17.105	-12.790	22.141	 H	4	PRJ34H	0.080	
82	 H23	18.831	-12.222	20.777	 H	4	PRJ34H	0.032	
83	 H24	18.494	-13.526	19.589	 H	4	PRJ34H	0.032	
84	 H25	19.831	-13.752	22.336	 H	4	PRJ34H	0.032	
85	 H26	21.512	-15.009	21.222	 H	4	PRJ34H	0.027	
86	 H27	21.310	-13.418	20.413	 H	4	PRJ34H	0.027	
87	 H28	21.571	-15.442	18.786	 H	4	PRJ34H	0.029	
88	 H29	20.094	-14.457	18.513	 H	4	PRJ34H	0.029	
89	 H30	19.477	-16.742	18.495	 H	4	PRJ34H	0.059	
90	 H31	17.767	-16.984	20.277	 H	4	PRJ34H	0.031	
91	 H32	17.767	-15.374	19.480	 H	4	PRJ34H	0.031	
92	 H33	18.878	-16.046	22.344	 H	4	PRJ34H	0.056	
@<TRIPOS>BOND
1 1 13 1
2 2 14 1
3 3 4 2
4 4 5 1
5 1 5 1
6 5 6 1
7 5 15 1
8 6 7 1
9 6 16 1
10 6 17 1
11 7 8 ar
12 7 12 ar
13 8 9 ar
14 8 18 1
15 9 10 ar
16 9 19 1
17 2 10 1
18 10 11 ar
19 11 20 1
20 11 12 ar
21 12 21 1
22 4 22 1
23 22 30 1
24 22 23 1
25 23 26 1
26 23 31 1
27 23 24 1
28 24 25 2
29 26 27 1
30 26 32 1
31 26 33 1
32 27 28 1
33 27 29 1
34 27 34 1
35 28 35 1
36 28 36 1
37 28 37 1
38 29 38 1
39 29 39 1
40 29 40 1
41 41 52 1
42 42 44 1
43 42 51 1
44 42 59 1
45 42 43 1
46 43 53 1
47 44 46 1
48 44 60 1
49 44 61 1
50 45 50 ar
51 45 54 1
52 46 48 1
53 46 62 1
54 46 63 1
55 47 55 1
56 47 56 1
57 45 48 1
58 48 64 1
59 48 65 1
60 49 57 1
61 49 58 1
62 47 50 ar
63 49 50 ar
64 41 51 1
65 51 66 1
66 51 67 1
67 68 80 1
68 24 70 1
69 70 72 1
70 70 79 1
71 43 71 1
72 69 71 2
73 71 72 1
74 72 73 1
75 72 81 1
76 73 82 1
77 73 83 1
78 73 74 1
79 74 75 1
80 74 84 1
81 75 76 1
82 75 85 1
83 75 86 1
84 76 87 1
85 76 88 1
86 68 77 1
87 76 77 1
88 77 89 1
89 77 78 1
90 78 90 1
91 78 91 1
92 74 79 1
93 78 79 1
94 79 92 1
@<TRIPOS>SUBSTRUCTURE
1	34H34H	1	GROUP	1 ****	34H
2	LEU34H	22	GROUP	1 ****	LEU
3	OAR34H	41	GROUP	1 ****	OAR
4	PRJ34H	68	GROUP	1 ****	PRJ
